sol/case2746wp.m
function mpc = case2746wp
%CASE2746WP

%% MATPOWER Case Format : Version 2
mpc.version = '2';

%%-----  Power Flow Data  -----%%
%% system MVA base
mpc.baseMVA = 100;

%% bus data
%	bus_i	type	Pd	Qd	Gs	Bs	area	Vm	Va	baseKV	zone	Vmax	Vmin	lam_P	lam_Q	mu_Vmax	mu_Vmin
mpc.bus = [
	1	1	0	0	0	0	1	1.10032862	-0.63377567	220	1	1.11	0.95	98.3744	0.1941	0.0000	0.0000;
	2	1	0	0	0	0	1	1.10174852	1.19648743	220	1	1.11	0.95	98.0077	0.1561	0.0000	0.0000;
	3	1	0	0	0	0	1	1.06394683	-26.5141901	220	1	1.11	0.95	113.7038	0.8260	0.0000	0.0000;
	4	1	0	0	0	0	1	1.08489014	-6.13063738	220	1	1.11	0.95	101.3652	0.7513	0.0000	0.0000;
	5	1	0	0	0	0	1	1.08495307	-6.13327455	220	1	1.11	0.95	101.3671	0.7499	0.0000	0.0000;
	6	1	0	0	0	0	1	1.05935974	-17.7703945	220	1	1.11	0.95	106.7426	1.2090	0.0000	0.0000;
	7	1	0	0	0	0	1	1.05950849	-17.7623246	220	1	1.11	0.95	106.7341	1.2053	0.0000	0.0000;
	8	1	0	0	0	0	1	1.02884282	-13.4624065	400	1	1.05	0.95	105.2759	0.6824	0.0000	0.0000;
	9	1	0	0	0	0	1	1.02885725	-13.4578489	400	1	1.05	0.95	105.2733	0.6808	0.0000	0.0000;
	10	1	0	0	0	0	1	1.04059567	-17.7644022	220	1	1.11	0.95	107.8104	1.8201	0.0000	0.0000;
	11	1	0	0	0	0	1	1.04049348	-17.749891	220	1	1.11	0.95	107.8092	1.8229	0.0000	0.0000;
	12	1	0	0	0	0	1	1.04052696	-17.7406096	220	1	1.11	0.95	107.8069	1.8222	0.0000	0.0000;
	13	1	0	0	0	0	1	1.02742549	-11.705825	400	1	1.05	0.95	104.4308	1.0376	0.0000	0.0000;
	14	1	0	0	0	0	1	1.02747076	-11.6956928	400	1	1.05	0.95	104.4252	1.0352	0.0000	0.0000;
	15	1	0	0	0	0	1	1.02778395	-16.558028	400	1	1.05	0.95	106.1309	0.0493	0.0000	0.0000;
	16	1	0	0	0	0	1	1.02778395	-16.558028	400	1	1.05	0.95	106.1309	0.0493	0.0000	0.0000;
	17	2	11	40	0	0	1	1.10446237	-21.4699079	220	1	1.11	0.95	109.6343	0.0006	0.0000	0.0000;
	18	2	14	40	0	0	1	1.1044813	-21.4684702	220	1	1.11	0.95	109.6329	-0.0000	0.0000	0.0000;
	19	1	0	0	0	0	1	1.08981933	-4.96980504	220	1	1.11	0.95	100.6881	0.6094	0.0000	0.0000;
	20	1	0	0	0	0	1	1.08985604	-4.96867537	220	1	1.11	0.95	100.6896	0.6086	0.0000	0.0000;
	21	1	0	0	0	0	1	1.06034511	-19.2477295	220	1	1.11	0.95	108.3982	1.3103	0.0000	0.0000;
	22	1	0	0	0	0	1	1.0602785	-19.2496139	220	1	1.11	0.95	108.3994	1.3116	0.0000	0.0000;
	23	1	0	0	0	0	1	1.04385008	-17.6356941	220	1	1.11	0.95	107.7280	1.7348	0.0000	0.0000;
	24	1	0	0	0	0	1	1.09185292	-2.83062928	220	1	1.11	0.95	99.8206	0.5316	0.0000	0.0000;
	25	1	0	0	0	0	1	1.01541509	-13.8581656	400	1	1.05	0.95	105.5001	0.4758	0.0000	0.0000;
	26	2	46.738	72.054	0	0	1	1.11	-0.270150948	220	1	1.11	0.95	98.1924	-0.0000	1865.9574	0.0000;
	27	2	85.493	122.06	0	0	1	1.11	1.45586787	220	1	1.11	0.95	97.8899	-0.0000	2490.1207	0.0000;
	28	3	60	110	0	0	1	1.0460387	0	400	1	1.05	0.95	98.8278	-0.1664	0.0000	0.0000;
	29	2	60.097	90	0	0	1	1.04607799	0.00579695503	400	1	1.05	0.95	98.8236	-0.1653	0.0000	0.0000;
	30	1	0	0	0	0	1	1.04795943	-18.5523955	220	1	1.11	0.95	108.3421	1.5140	0.0000	0.0000;
	31	1	0	0	0	0	1	1.04572663	-1.43689034	400	1	1.05	0.95	98.9358	-0.4913	0.0000	0.0000;
	32	1	0	0	0	0	1	1.03828202	-18.1090226	220	1	1.11	0.95	108.0472	1.8718	0.0000	0.0000;
	33	1	0	0	0	0	1	1.09185866	-2.82956162	220	1	1.11	0.95	99.8203	0.5315	0.0000	0.0000;
	34	1	0	0	0	0	1	1.0924995	-9.55944308	220	1	1.11	0.95	103.0507	0.5278	0.0000	0.0000;
	35	1	0	0	0	0	1	1.08950722	-13.1485034	220	2	1.11	0.95	104.6854	0.0233	0.0000	0.0000;
	36	1	0	0	0	0	1	1.09250411	-12.8388534	220	2	1.11	0.95	104.6888	-0.0238	0.0000	0.0000;
	37	1	0	0	0	0	1	1.09703568	-11.0887393	220	2	1.11	0.95	103.5650	-0.0742	0.0000	0.0000;
	38	1	0	0	0	0	1	1.09702661	-11.0931271	220	2	1.11	0.95	103.5673	-0.0740	0.0000	0.0000;
	39	1	0	0	0	0	1	1.07608062	-15.992915	220	2	1.11	0.95	106.6833	-0.1635	0.0000	0.0000;
	40	1	0	0	0	0	1	1.10409954	-9.38740273	220	2	1.11	0.95	102.8064	-0.2165	0.0000	0.0000;
	41	1	0	0	0	0	1	1.10405513	-9.38561156	220	2	1.11	0.95	102.8062	-0.2161	0.0000	0.0000;
	42	1	0	0	0	0	1	1.04358921	-9.73263287	400	2	1.05	0.95	102.8380	-0.3194	0.0000	0.0000;
	43	2	11.436	0	0	0	1	1.11	-9.843648	220	2	1.11	0.95	102.8977	0.0000	987.2805	0.0000;
	44	2	24	0	0	0	1	1.10999995	-9.81600161	220	2	1.11	0.95	102.8880	-0.0000	320.0982	0.0000;
	45	2	20	0	0	0	1	1.04864677	-10.5520641	400	2	1.05	0.95	103.5790	-0.0000	0.0000	0.0000;
	46	1	0	0	0	0	1	1.04867548	-10.5538324	400	2	1.05	0.95	103.5778	-0.0016	0.0000	0.0000;
	47	1	0	0	0	0	1	1.10032763	-9.97750498	220	2	1.11	0.95	103.2258	-0.1347	0.0000	0.0000;
	48	1	0	0	0	0	1	1.03532111	-15.4890811	400	2	1.05	0.95	104.6825	-0.3487	0.0000	0.0000;
	49	1	0	0	0	0	1	1.03529064	-15.4980696	400	2	1.05	0.95	104.6868	-0.3479	0.0000	0.0000;
	50	1	0	0	0	0	1	1.05	-11.6899532	400	2	1.05	0.95	103.9832	-0.4296	2592.5645	0.0000;
	51	1	0	0	0	0	1	1.08320126	-14.8314075	220	2	1.11	0.95	106.0279	-0.1069	0.0000	0.0000;
	52	1	0	0	0	0	1	1.08318655	-14.8310297	220	2	1.11	0.95	106.0289	-0.1070	0.0000	0.0000;
	53	1	0	0	0	0	1	1.04401775	-11.1750429	400	2	1.05	0.95	103.5554	-0.2207	0.0000	0.0000;
	54	1	0	0	0	0	1	1.04401807	-11.1734424	400	2	1.05	0.95	103.5543	-0.2215	0.0000	0.0000;
	55	2	12	0	0	0	1	1.10261167	-9.40415467	220	2	1.11	0.95	102.6833	-0.1315	0.0000	0.0000;
	56	2	11.436	0	0	0	1	1.10252439	-9.40093962	220	2	1.11	0.95	102.6795	-0.1290	0.0000	0.0000;
	57	2	12	0	0	0	1	1.0456662	-10.159642	400	2	1.05	0.95	102.9710	-0.4565	0.0000	0.0000;
	58	2	11.436	0	0	0	1	1.04568865	-10.164608	400	2	1.05	0.95	102.9735	-0.4564	0.0000	0.0000;
	59	2	167.518	60	0	0	1	1.10173467	-11.3209589	220	2	1.11	0.95	103.6458	0.0435	0.0000	0.0000;
	60	1	0	0	0	0	1	1.10174239	-11.3209903	220	2	1.11	0.95	103.6452	0.0429	0.0000	0.0000;
	61	1	0	0	0	0	1	1.10054519	-10.1355053	220	2	1.11	0.95	103.1641	-0.1614	0.0000	0.0000;
	62	1	0	0	0	0	1	1.10360405	-11.066589	220	2	1.11	0.95	103.6641	0.0299	0.0000	0.0000;
	63	1	0	0	0	0	1	1.10360175	-11.0698063	220	2	1.11	0.95	103.6648	0.0304	0.0000	0.0000;
	64	1	0	0	0	0	1	1.04686531	-11.7509158	400	2	1.05	0.95	103.3544	-0.6459	0.0000	0.0000;
	65	1	0	0	0	0	1	1.04684966	-11.7630208	400	2	1.05	0.95	103.3582	-0.6463	0.0000	0.0000;
	66	1	0	0	0	0	1	1.08932631	-12.666845	220	2	1.11	0.95	104.3270	-0.0116	0.0000	0.0000;
	67	1	0	0	0	0	1	1.09145524	-12.4220848	220	2	1.11	0.95	104.1835	-0.0374	0.0000	0.0000;
	68	1	0	0	0	0	1	1.08362102	-14.3196709	220	2	1.11	0.95	105.8228	-0.0582	0.0000	0.0000;
	69	1	0	0	0	0	1	1.10054008	-4.47595287	220	3	1.11	0.95	100.1539	-0.1713	0.0000	0.0000;
	70	1	7.123	0	0	0	1	1.09805084	-9.69820058	220	3	1.11	0.95	103.0181	0.0328	0.0000	0.0000;
	71	1	8.31	0.933	0	0	1	1.09801932	-9.70087539	220	3	1.11	0.95	103.0204	0.0336	0.0000	0.0000;
	72	1	0	0	0	0	1	1.10591698	-4.35012236	220	3	1.11	0.95	99.8544	0.0997	0.0000	0.0000;
	73	1	0	0	0	0	1	1.10596909	-4.34101179	220	3	1.11	0.95	99.8510	0.0985	0.0000	0.0000;
	74	1	0	0	0	0	1	1.10132958	-4.76739895	220	3	1.11	0.95	100.0425	0.1134	0.0000	0.0000;
	75	1	0	0	0	0	1	1.10129049	-4.77152691	220	3	1.11	0.95	100.0443	0.1139	0.0000	0.0000;
	76	1	0	0	0	0	1	1.10849471	-3.41568783	220	3	1.11	0.95	99.5289	0.0370	0.0000	0.0000;
	77	1	0	0	0	0	1	1.10846323	-3.42366553	220	3	1.11	0.95	99.5332	0.0381	0.0000	0.0000;
	78	2	27	70	0	0	1	1.11	-3.73041254	220	3	1.11	0.95	99.5073	0.0000	745.1130	0.0000;
	79	2	9	21	0	0	1	1.10913706	-3.90486696	220	3	1.11	0.95	99.6315	-0.0000	0.0000	0.0000;
	80	1	10.328	2.61	0	0	1	1.09847043	-5.13609676	220	3	1.11	0.95	100.4234	0.2763	0.0000	0.0000;
	81	1	0	0	0	0	1	1.09848677	-5.13483218	220	3	1.11	0.95	100.4228	0.2761	0.0000	0.0000;
	82	2	35	108	0	0	1	1.04335644	-3.66512208	400	3	1.05	0.95	99.2060	-0.0000	0.0000	0.0000;
	83	1	0	0	0	0	1	1.10849647	-6.51362448	220	3	1.11	0.95	100.5207	0.3126	0.0000	0.0000;
	84	1	0	0	0	0	1	1.10653409	-3.93298631	220	3	1.11	0.95	99.4393	0.0552	0.0000	0.0000;
	85	1	0	0	0	0	1	1.106537	-3.93488692	220	3	1.11	0.95	99.4413	0.0556	0.0000	0.0000;
	86	1	37.893	12.351	0	0	1	1.10112717	-4.34763711	220	3	1.11	0.95	99.9862	-0.1392	0.0000	0.0000;
	87	1	0	0	0	0	1	1.10109505	-4.35358473	220	3	1.11	0.95	99.9881	-0.1395	0.0000	0.0000;
	88	1	0	0	0	0	1	1.10404223	-3.87076145	220	3	1.11	0.95	99.3750	0.0871	0.0000	0.0000;
	89	1	0	0	0	0	1	1.10402112	-3.87212223	220	3	1.11	0.95	99.3763	0.0877	0.0000	0.0000;
	90	1	0	0	0	0	1	1.1043565	-3.90435039	220	3	1.11	0.95	99.7743	-0.1588	0.0000	0.0000;
	91	1	0	0	0	0	1	1.10433424	-3.90987771	220	3	1.11	0.95	99.7769	-0.1588	0.0000	0.0000;
	92	1	0	0	0	0	1	1.04558189	-2.28084856	400	3	1.05	0.95	99.4957	-0.2629	0.0000	0.0000;
	93	1	0	0	0	0	1	1.04558669	-2.28271587	400	3	1.05	0.95	99.4959	-0.2633	0.0000	0.0000;
	94	1	0	0	0	0	1	1.10782852	-3.64271746	220	3	1.11	0.95	99.0466	0.0209	0.0000	0.0000;
	95	1	0	0	0	0	1	1.10786791	-3.64205299	220	3	1.11	0.95	99.0460	0.0207	0.0000	0.0000;
	96	1	0	0	0	0	1	1.1052129	-5.57641082	220	3	1.11	0.95	100.2136	0.1872	0.0000	0.0000;
	97	1	0	0	0	0	1	1.10523909	-5.58106608	220	3	1.11	0.95	100.2145	0.1879	0.0000	0.0000;
	98	1	16.027	7.274	0	0	1	1.10545082	-4.67114367	220	3	1.11	0.95	100.0499	-0.0315	0.0000	0.0000;
	99	1	7.764	0.258	0	0	1	1.10543738	-4.67617741	220	3	1.11	0.95	100.0520	-0.0320	0.0000	0.0000;
	100	1	0	0	0	0	1	1.09810079	-9.68180554	220	3	1.11	0.95	103.0093	0.0329	0.0000	0.0000;
	101	1	0	0	0	0	1	1.09808243	-9.68153365	220	3	1.11	0.95	103.0085	0.0334	0.0000	0.0000;
	102	1	0	0	0	0	1	1.10364897	-4.48309305	220	3	1.11	0.95	100.1612	0.1646	0.0000	0.0000;
	103	1	0	0	0	0	1	1.10358191	-4.49318901	220	3	1.11	0.95	100.1658	0.1661	0.0000	0.0000;
	104	2	14	40	0	0	1	1.11	-3.3780063	220	3	1.11	0.95	99.0713	0.0000	369.8018	0.0000;
	105	2	14	40	0	0	1	1.11	-3.37859902	220	3	1.11	0.95	99.0686	-0.0000	478.3198	0.0000;
	106	2	7	18	0	0	1	1.10764114	-3.5692399	220	3	1.11	0.95	99.1326	0.0000	0.0000	0.0000;
	107	2	8	15	0	0	1	1.10761334	-3.56916114	220	3	1.11	0.95	99.1345	-0.0000	0.0000	0.0000;
	108	1	1.044	0	0	0	1	1.10335259	-5.15099134	220	3	1.11	0.95	100.3181	-0.0866	0.0000	0.0000;
	109	1	1.259	0	0	0	1	1.10339481	-5.15752166	220	3	1.11	0.95	100.3196	-0.0859	0.0000	0.0000;
	110	1	0	0	0	0	1	1.10355338	-6.39059082	220	3	1.11	0.95	101.1858	0.0197	0.0000	0.0000;
	111	1	0	0	0	0	1	1.09500768	-5.1691562	220	3	1.11	0.95	100.4777	0.3796	0.0000	0.0000;
	112	1	0	0	0	0	1	1.09503163	-5.16895638	220	3	1.11	0.95	100.4775	0.3792	0.0000	0.0000;
	113	1	0	0	0	0	1	1.09951834	-5.04658825	220	3	1.11	0.95	100.3689	0.2577	0.0000	0.0000;
	114	1	0	0	0	0	1	1.0995863	-5.03663363	220	3	1.11	0.95	100.3647	0.2563	0.0000	0.0000;
	115	1	0	0	0	0	1	1.04390058	-5.95321826	400	3	1.05	0.95	100.4354	-1.3327	0.0000	0.0000;
	116	2	0	0	0	0	1	1.1077376	-4.38346392	220	3	1.11	0.95	99.8886	0.0005	0.0000	0.0000;
	117	2	8	15	0	0	1	1.10776723	-4.37668686	220	3	1.11	0.95	99.8867	-0.0000	0.0000	0.0000;
	118	2	5.5	10	0	0	1	1.10791675	-5.71984063	220	3	1.11	0.95	100.8743	-0.0654	0.0000	0.0000;
	119	1	0	0	0	0	1	1.10787856	-5.73179922	220	3	1.11	0.95	100.8793	-0.0647	0.0000	0.0000;
	120	1	0	0	0	0	1	1.04866239	-10.3646201	400	3	1.05	0.95	102.8673	-0.8614	0.0000	0.0000;
	121	1	0	0	0	0	1	1.04870067	-10.3567928	400	3	1.05	0.95	102.8631	-0.8634	0.0000	0.0000;
	122	1	0	0	0	0	1	1.04999256	-6.14941304	400	3	1.05	0.95	100.5835	-2.3748	0.1319	0.0000;
	123	1	0	0	0	0	1	1.05	-6.14409711	400	3	1.05	0.95	100.5818	-2.3839	29789.0400	0.0000;
	124	1	0	0	0	0	1	1.10388273	-6.50056565	220	3	1.11	0.95	101.3356	-0.0040	0.0000	0.0000;
	125	2	18.343	21.865	0	0	1	1.10829449	-3.95618499	220	3	1.11	0.95	99.5447	-0.0000	0.0000	0.0000;
	126	2	28.469	34.292	0	0	1	1.10825172	-3.95774142	220	3	1.11	0.95	99.5476	0.0025	0.0000	0.0000;
	127	2	28	66	0	0	1	1.04261362	-5.12633935	400	3	1.05	0.95	100.0365	-0.6138	0.0000	0.0000;
	128	1	0	0	0	0	1	1.04263016	-5.12875923	400	3	1.05	0.95	100.0374	-0.6168	0.0000	0.0000;
	129	1	0	0	0	0	1	1.10035241	-4.47087248	220	3	1.11	0.95	100.0426	-0.1423	0.0000	0.0000;
	130	1	0	0	0	0	1	1.10037826	-4.46720046	220	3	1.11	0.95	100.0396	-0.1422	0.0000	0.0000;
	131	1	0	0	0	0	1	1.10264649	-4.15873381	220	3	1.11	0.95	99.8751	-0.1404	0.0000	0.0000;
	132	2	3	18	0	0	1	1.11	-2.69591251	220	3	1.11	0.95	99.1845	0.0000	859.2956	0.0000;
	133	2	2	6	0	0	1	1.11	-3.06943844	220	3	1.11	0.95	99.3615	0.0000	427.7304	0.0000;
	134	2	15.447	12.88	0	0	1	1.11	-10.7707649	220	4	1.11	0.95	103.4751	0.0000	523.1097	0.0000;
	135	2	5.255	-0.357	0	0	1	1.10987505	-10.7802862	220	4	1.11	0.95	103.4781	0.0024	0.0000	0.0000;
	136	1	0	0	0	0	1	1.08040577	-12.9913928	220	4	1.11	0.95	102.4344	0.8593	0.0000	0.0000;
	137	1	0	0	0	0	1	1.08625848	-11.1749901	220	4	1.11	0.95	101.2402	0.6887	0.0000	0.0000;
	138	1	0	0	0	0	1	1.02076285	-9.91334365	400	4	1.05	0.95	101.1421	0.6369	0.0000	0.0000;
	139	1	0	0	0	0	1	1.0207735	-9.91479965	400	4	1.05	0.95	101.1429	0.6367	0.0000	0.0000;
	140	1	0	0	0	0	1	1.09294188	-21.5654769	220	4	1.11	0.95	110.4318	0.4187	0.0000	0.0000;
	141	1	0	0	0	0	1	1.09367422	-27.8890285	220	4	1.11	0.95	114.1457	0.4043	0.0000	0.0000;
	142	1	0	0	0	0	1	1.09367422	-27.8890285	220	4	1.11	0.95	114.1457	0.4043	0.0000	0.0000;
	143	1	0	0	0	0	1	1.09792953	-24.8478338	220	4	1.11	0.95	111.2376	0.8977	0.0000	0.0000;
	144	1	0	0	0	0	1	1.09674231	-13.5264934	220	4	1.11	0.95	101.8455	0.4789	0.0000	0.0000;
	145	1	0	0	0	0	1	1.09674231	-13.5264934	220	4	1.11	0.95	101.8455	0.4789	0.0000	0.0000;
	146	2	10.954	-0.465	0	0	1	1.109661	-13.5919807	220	4	1.11	0.95	104.8791	0.0239	0.0000	0.0000;
	147	2	10.812	-0.465	0	0	1	1.10964056	-13.6027212	220	4	1.11	0.95	104.8816	0.0252	0.0000	0.0000;
	148	2	11.5	6.86	0	0	1	1.11	-25.7138856	220	4	1.11	0.95	112.3062	-0.0000	1716.4892	0.0000;
	149	1	1.634	3.038	0	0	1	1.10999579	-25.7086331	220	4	1.11	0.95	112.3021	0.0006	0.2391	0.0000;
	150	2	8.087	-0.38	0	0	1	1.03673839	-22.2344477	400	4	1.05	0.95	111.3309	-0.2391	0.0000	0.0000;
	151	2	16.174	-0.76	0	0	1	1.03677049	-22.2302066	400	4	1.05	0.95	111.3278	-0.2400	0.0000	0.0000;
	152	1	0	0	0	0	1	1.05771772	-21.6779159	220	4	1.11	0.95	111.0870	1.8418	0.0000	0.0000;
	153	1	0	0	0	0	1	1.07456118	-20.2876688	220	4	1.11	0.95	108.1671	1.8512	0.0000	0.0000;
	154	1	0	0	0	0	1	1.07464383	-20.2813574	220	4	1.11	0.95	108.1623	1.8494	0.0000	0.0000;
	155	2	30.555	-3.555	0	0	1	1.11	-7.01644579	220	4	1.11	0.95	98.9818	-0.0000	3306.2598	0.0000;
	156	2	14.679	-3.566	0	0	1	1.11	-8.1138161	220	4	1.11	0.95	99.5942	-0.0000	8253.8050	0.0000;
	157	1	0	0	0	0	1	1.11	-7.01644579	220	4	1.11	0.95	98.9812	-0.0062	3306.2598	0.0000;
	158	1	0	0	0	0	1	1.03495077	-6.65616277	400	4	1.05	0.95	99.4435	0.1499	0.0000	0.0000;
	159	2	7.385	-1.783	0	0	1	1.03499656	-6.6507301	400	4	1.05	0.95	99.4419	0.1487	0.0000	0.0000;
	160	1	0	0	0	0	1	1.09200923	-28.0996349	220	4	1.11	0.95	114.4109	0.4216	0.0000	0.0000;
	161	1	0	0	0	0	1	1.09200923	-28.0996349	220	4	1.11	0.95	114.4109	0.4216	0.0000	0.0000;
	162	1	0	0	0	0	1	1.0177487	-10.8919918	400	4	1.05	0.95	101.7744	0.8236	0.0000	0.0000;
	163	1	0	0	0	0	1	1.0248924	-9.35184888	400	4	1.05	0.95	101.0258	0.5677	0.0000	0.0000;
	164	1	0	0	0	0	1	1.02489209	-9.35395975	400	4	1.05	0.95	101.0262	0.5676	0.0000	0.0000;
	165	2	4.293	-8.964	0	0	1	1.10999999	-13.6891125	220	4	1.11	0.95	104.8998	-0.0000	543.3631	0.0000;
	166	2	23.077	7.176	0	0	1	1.11	-13.7075902	220	4	1.11	0.95	104.9103	0.0000	1069.3473	0.0000;
	167	1	0	0	0	0	1	1.10999999	-13.6891125	220	4	1.11	0.95	104.8997	-0.0010	543.3631	0.0000;
	168	1	0	0	0	0	1	1.0808453	-26.4138844	220	4	1.11	0.95	113.8324	0.1587	0.0000	0.0000;
	169	1	0	0	0	0	1	1.09283131	-28.0011979	220	4	1.11	0.95	114.2341	0.4188	0.0000	0.0000;
	170	1	0	0	0	0	1	1.08637283	-22.5025391	220	4	1.11	0.95	111.1719	0.5563	0.0000	0.0000;
	171	1	0	0	0	0	1	1.08627583	-22.496049	220	4	1.11	0.95	111.1696	0.5579	0.0000	0.0000;
	172	1	0	0	0	0	1	1.00572474	-23.5396236	400	4	1.05	0.95	111.5160	0.4782	0.0000	0.0000;
	173	1	0	0	0	0	1	1.00572474	-23.5396236	400	4	1.05	0.95	111.5160	0.4782	0.0000	0.0000;
	174	1	0	0	0	0	1	1.04760767	-17.9194932	220	4	1.11	0.95	107.8162	2.5881	0.0000	0.0000;
	175	1	0	0	0	0	1	1.04761978	-17.9126263	220	4	1.11	0.95	107.8153	2.5879	0.0000	0.0000;
	176	1	0	0	0	0	1	1.0847618	-23.0315307	220	4	1.11	0.95	111.4608	0.5797	0.0000	0.0000;
	177	1	0	0	0	0	1	1.08672471	-12.50371	220	4	1.11	0.95	102.1860	0.7110	0.0000	0.0000;
	178	1	0	0	0	0	1	1.08676418	-12.4974313	220	4	1.11	0.95	102.1857	0.7103	0.0000	0.0000;
	179	1	0	0	0	0	1	1.08996435	-11.971084	220	4	1.11	0.95	102.2860	0.6849	0.0000	0.0000;
	180	1	0	0	0	0	1	1.08996435	-11.971084	220	4	1.11	0.95	102.2860	0.6849	0.0000	0.0000;
	181	1	0	0	0	0	1	1.04489655	-19.4456477	220	4	1.11	0.95	108.4820	2.6673	0.0000	0.0000;
	182	1	0	0	0	0	1	1.0474507	-21.8375219	220	5	1.11	0.95	109.5758	-0.0771	0.0000	0.0000;
	183	1	0	0	0	0	1	1.11	-23.4498522	220	5	1.11	0.95	110.9318	-1.5132	3354.8176	0.0000;
	184	1	0	0	0	0	1	1.03628373	-21.7140489	400	5	1.05	0.95	110.5952	-0.5788	0.0000	0.0000;
	185	1	0	0	0	0	1	1.0363074	-21.7185385	400	5	1.05	0.95	110.5979	-0.5785	0.0000	0.0000;
	186	1	0	0	0	0	1	1.01811083	-21.2396489	400	5	1.05	0.95	110.0240	0.0219	0.0000	0.0000;
	187	1	0	0	0	0	1	1.0181308	-21.2437124	400	5	1.05	0.95	110.0268	0.0219	0.0000	0.0000;
	188	1	0	0	0	0	1	1.02171097	-25.0784449	220	5	1.11	0.95	112.0797	0.4727	0.0000	0.0000;
	189	1	0	0	0	0	1	1.02178689	-25.0798858	220	5	1.11	0.95	112.0803	0.4720	0.0000	0.0000;
	190	1	0	0	0	0	1	1.07165108	-22.6540386	220	5	1.11	0.95	109.8380	-0.4571	0.0000	0.0000;
	191	1	0	0	0	0	1	1.07153489	-22.6555579	220	5	1.11	0.95	109.8387	-0.4580	0.0000	0.0000;
	192	1	0	0	0	0	1	0.991118263	-19.9305868	400	5	1.05	0.95	108.9892	0.0688	0.0000	0.0000;
	193	1	0	0	0	0	1	1.05680472	-21.0181649	220	5	1.11	0.95	109.2390	0.0979	0.0000	0.0000;
	194	1	0	0	0	0	1	1.05688261	-21.0143049	220	5	1.11	0.95	109.2380	0.0981	0.0000	0.0000;
	195	1	0	0	0	0	1	1.00745402	-23.2225233	400	5	1.05	0.95	111.2203	0.1140	0.0000	0.0000;
	196	1	0	0	0	0	1	1.00740657	-23.2274892	400	5	1.05	0.95	111.2236	0.1146	0.0000	0.0000;
	197	1	0	0	0	0	1	1.06278892	-25.7640367	220	5	1.11	0.95	112.7452	0.3220	0.0000	0.0000;
	198	1	0	0	0	0	1	1.06283497	-25.7573196	220	5	1.11	0.95	112.7420	0.3219	0.0000	0.0000;
	199	1	0	0	0	0	1	1.03822843	-19.7898981	400	5	1.05	0.95	109.6034	-0.3090	0.0000	0.0000;
	200	1	0	0	0	0	1	1.038253	-19.7844122	400	5	1.05	0.95	109.6030	-0.3102	0.0000	0.0000;
...
];

%% generator data
%	bus	Pg	Qg	Qmax	Qmin	Vg	mBase	status	Pmax	Pmin	Pc1	Pc2	Qc1min	Qc1max	Qc2min	Qc2max	ramp_agc	ramp_10	ramp_30	ramp_q	apf	mu_Pmax	mu_Pmin	mu_Qmax	mu_Qmin
mpc.gen = [
	17	140	119.998337	120	-10	1.10446237	233.2	1	200	140	0	0	0	0	0	0	0	0	0	0	0	0.0000	3.1457	0.0000	0.0000;
	18	140	41.0070389	120	-10	1.1044813	233.2	1	200	140	0	0	0	0	0	0	0	0	0	0	0	0.0000	3.1471	0.0000	0.0000;
	26	370	100.519522	220	-10	1.11	430.5	1	370	290	0	0	0	0	0	0	0	0	0	0	0	22.0924	0.0000	0.0000	0.0000;
	26	360	100.519522	220	-10	1.11	421.9	1	360	290	0	0	0	0	0	0	0	0	0	0	0	22.0924	0.0000	0.0000	0.0000;
	27	360	85.2583137	220	-10	1.11	421.9	1	360	290	0	0	0	0	0	0	0	0	0	0	0	21.7899	0.0000	0.0000	0.0000;
	27	370	85.2583137	220	-10	1.11	430.5	1	370	290	0	0	0	0	0	0	0	0	0	0	0	21.7899	0.0000	0.0000	0.0000;
	27	370	85.2583137	220	-10	1.11	430.5	1	370	290	0	0	0	0	0	0	0	0	0	0	0	21.7899	0.0000	0.0000	0.0000;
	28	370	-9.99999412	220	-10	1.0460387	430.5	1	370	290	0	0	0	0	0	0	0	0	0	0	0	22.7278	0.0000	0.0000	0.1664;
	28	370	-9.99999412	220	-10	1.0460387	430.5	1	370	290	0	0	0	0	0	0	0	0	0	0	0	22.7278	0.0000	0.0000	0.1664;
	28	370	-9.99999412	220	-10	1.0460387	430.5	1	370	290	0	0	0	0	0	0	0	0	0	0	0	22.7278	0.0000	0.0000	0.1664;
	29	370	-9.99999407	220	-10	1.04607799	430.5	1	370	290	0	0	0	0	0	0	0	0	0	0	0	22.7236	0.0000	0.0000	0.1653;
	29	370	-9.99999407	220	-10	1.04607799	430.5	1	370	290	0	0	0	0	0	0	0	0	0	0	0	22.7236	0.0000	0.0000	0.1653;
	29	370	-9.99999407	220	-10	1.04607799	430.5	1	370	290	0	0	0	0	0	0	0	0	0	0	0	22.7236	0.0000	0.0000	0.1653;
	43	214.999999	71.9827484	120	-20	1.11	246.2	1	215	135	0	0	0	0	0	0	0	0	0	0	0	0.8477	0.0000	0.0000	0.0000;
	43	0	0	120	-20	1.09091	275.3	0	247.8	135	0	0	0	0	0	0	0	0	0	0	0	0.0000	0.0000	0.0000	0.0000;
	43	247.799999	71.9827484	120	-20	1.11	275.3	1	247.8	135	0	0	0	0	0	0	0	0	0	0	0	0.8477	0.0000	0.0000	0.0000;
	44	224.999999	-8.74062727	120	-20	1.10999995	255	1	225	135	0	0	0	0	0	0	0	0	0	0	0	0.8380	0.0000	0.0000	0.0000;
	44	224.999999	-8.74062727	120	-20	1.10999995	255	1	225	135	0	0	0	0	0	0	0	0	0	0	0	0.8380	0.0000	0.0000	0.0000;
	44	0	0	120	-20	1.09096	255	0	225	135	0	0	0	0	0	0	0	0	0	0	0	0.0000	0.0000	0.0000	0.0000;
	45	0	0	350	-40	1.0325	610.3	0	500	350	0	0	0	0	0	0	0	0	0	0	0	0.0000	0.0000	0.0000	0.0000;
	45	499.999999	21.8705472	350	-40	1.04864677	610.3	1	500	350	0	0	0	0	0	0	0	0	0	0	0	1.5290	0.0000	0.0000	0.0000;
	55	130	-19.9999926	120	-20	1.10261167	255	1	225	130	0	0	0	0	0	0	0	0	0	0	0	0.0000	2.6667	0.0000	0.1315;
	56	130	-20.0009925	120	-20.001	1.10252439	255	1	225	130	0	0	0	0	0	0	0	0	0	0	0	0.0000	2.6705	0.0000	0.1290;
	56	130	-20.0009925	120	-20.001	1.10252439	255	1	225	130	0	0	0	0	0	0	0	0	0	0	0	0.0000	2.6705	0.0000	0.1290;
	57	130	-19.9999979	120	-20	1.0456662	255	1	225	130	0	0	0	0	0	0	0	0	0	0	0	0.0000	2.3790	0.0000	0.4565;
	58	0	0	120	-20	1.03337	255	0	225	130	0	0	0	0	0	0	0	0	0	0	0	0.0000	0.0000	0.0000	0.0000;
	58	130	-20.0059979	120	-20.006	1.04568865	255	1	225	130	0	0	0	0	0	0	0	0	0	0	0	0.0000	2.3765	0.0000	0.4564;
	58	130	-20.0059979	120	-20.006	1.04568865	255	1	225	130	0	0	0	0	0	0	0	0	0	0	0	0.0000	2.3765	0.0000	0.4564;
	59	78.5	33.6399782	33.64	0	1.10173467	85.4	1	78.5	78.5	0	0	0	0	0	0	0	0	0	0	0	103.6458	0.0000	0.0435	0.0000;
	78	225	56.5898429	105	5	1.11	248.3	1	225	140	0	0	0	0	0	0	0	0	0	0	0	4.1973	0.0000	0.0000	0.0000;
	78	225	56.5898429	105	5	1.11	248.3	1	225	140	0	0	0	0	0	0	0	0	0	0	0	4.1973	0.0000	0.0000	0.0000;
	79	0	0	105	5	1.09034	243.8	0	220	140	0	0	0	0	0	0	0	0	0	0	0	0.0000	0.0000	0.0000	0.0000;
	79	0	0	105	5	1.09034	248.3	0	225	140	0	0	0	0	0	0	0	0	0	0	0	0.0000	0.0000	0.0000	0.0000;
	79	225	17.1811136	105	5	1.10913706	248.3	1	225	140	0	0	0	0	0	0	0	0	0	0	0	4.3215	0.0000	0.0000	0.0000;
	82	380	-19.9949719	192	-37	1.04335644	425.8	1	380	220	0	0	0	0	0	0	0	0	0	0	0	9.1760	0.0000	0.0000	0.0000;
	82	370	-2.57307359	174	-19	1.04335644	408.9	1	370	220	0	0	0	0	0	0	0	0	0	0	0	9.1760	0.0000	0.0000	0.0000;
	104	225	44.2428069	113	-48	1.11	251.8	1	225	134	0	0	0	0	0	0	0	0	0	0	0	6.2913	0.0000	0.0000	0.0000;
	105	225	9.21990537	113	-48	1.11	251.8	1	225	134	0	0	0	0	0	0	0	0	0	0	0	6.2886	0.0000	0.0000	0.0000;
	106	120	44.7396961	90	-5	1.10764114	150	1	120	79	0	0	0	0	0	0	0	0	0	0	0	5.0426	0.0000	0.0000	0.0000;
	107	120	21.20754	90	-5	1.10761334	150	1	120	79	0	0	0	0	0	0	0	0	0	0	0	5.0445	0.0000	0.0000	0.0000;
	116	0	0	90	-20	1.09042	150	0	120	90	0	0	0	0	0	0	0	0	0	0	0	0.0000	0.0000	0.0000	0.0000;
	117	120	15.944189	90	-20	1.10776723	150	1	120	70	0	0	0	0	0	0	0	0	0	0	0	2.7667	0.0000	0.0000	0.0000;
	118	109.999999	33.000015	68	33	1.10791675	129.3	1	110	80	0	0	0	0	0	0	0	0	0	0	0	1.3543	0.0000	0.0000	0.0654;
	125	215	35.0130309	113	-11	1.10829449	242.9	1	215	160	0	0	0	0	0	0	0	0	0	0	0	8.3847	0.0000	0.0000	0.0000;
	126	225	83.9996045	84	-5	1.10825172	240.2	1	225	140	0	0	0	0	0	0	0	0	0	0	0	8.3876	0.0000	0.0025	0.0000;
	126	0	0	80	-5	1.09082	229.4	0	215	160	0	0	0	0	0	0	0	0	0	0	0	0.0000	0.0000	0.0000	0.0000;
	127	225	-7.49799841	79	-7.498	1.04261362	238.5	1	225	140	0	0	0	0	0	0	0	0	0	0	0	8.8765	0.0000	0.0000	0.6138;
	127	220	-9.99999841	100	-10	1.04261362	241.7	1	220	160	0	0	0	0	0	0	0	0	0	0	0	8.8765	0.0000	0.0000	0.6138;
	132	125	6.1088067	40	-38	1.11	131.2	1	125	74	0	0	0	0	0	0	0	0	0	0	0	99.1745	0.0000	0.0000	0.0000;
	132	125	6.1088067	40	-38	1.11	131.2	1	125	74	0	0	0	0	0	0	0	0	0	0	0	99.1745	0.0000	0.0000	0.0000;
	133	0	0	40	-38	1.09091	131.2	0	125	74	0	0	0	0	0	0	0	0	0	0	0	0.0000	0.0000	0.0000	0.0000;
	133	125	16.3988837	40	-38	1.11	131.2	1	125	74	0	0	0	0	0	0	0	0	0	0	0	99.3515	0.0000	0.0000	0.0000;
	134	0	0	90	0	1.08882	150	0	120	102	0	0	0	0	0	0	0	0	0	0	0	0.0000	0.0000	0.0000	0.0000;
	134	120	67.6948164	90	0	1.11	150	1	120	100	0	0	0	0	0	0	0	0	0	0	0	11.0451	0.0000	0.0000	0.0000;
	135	0	0	90	0	1.08867	150	0	120	102	0	0	0	0	0	0	0	0	0	0	0	0.0000	0.0000	0.0000	0.0000;
	146	49.9999999	11.999959	12	0	1.109661	51.4	1	50	30	0	0	0	0	0	0	0	0	0	0	0	8.4591	0.0000	0.0239	0.0000;
	146	49.9999999	11.999959	12	0	1.109661	51.4	1	50	30	0	0	0	0	0	0	0	0	0	0	0	8.4591	0.0000	0.0239	0.0000;
	147	0	0	90	0	1.09011	150	0	120	90	0	0	0	0	0	0	0	0	0	0	0	0.0000	0.0000	0.0000	0.0000;
	148	90.0000003	19.0650951	120	0	1.11	252.4	1	222	90	0	0	0	0	0	0	0	0	0	0	0	0.0000	3.7038	0.0000	0.0000;
	148	0	0	120	0	1.09091	237.5	0	205	135	0	0	0	0	0	0	0	0	0	0	0	0.0000	0.0000	0.0000	0.0000;
	148	0	0	120	0	1.09091	237.5	0	205	135	0	0	0	0	0	0	0	0	0	0	0	0.0000	0.0000	0.0000	0.0000;
	148	90.0000003	19.0650951	120	0	1.11	252.4	1	222	90	0	0	0	0	0	0	0	0	0	0	0	0.0000	3.7038	0.0000	0.0000;
	150	90.0000002	4.11408167e-06	120	0	1.03673839	252.4	1	222	90	0	0	0	0	0	0	0	0	0	0	0	0.0000	4.6791	0.0000	0.2391;
	151	90.0000002	4.09835597e-06	120	0	1.03677049	252.4	1	222	90	0	0	0	0	0	0	0	0	0	0	0	0.0000	4.6822	0.0000	0.2400;
	151	90.0000002	4.09835597e-06	120	0	1.03677049	252.4	1	222	90	0	0	0	0	0	0	0	0	0	0	0	0.0000	4.6822	0.0000	0.2400;
	155	234.999993	3.81268169	120	0	1.11	263.9	1	235	94	0	0	0	0	0	0	0	0	0	0	0	0.1418	0.0000	0.0000	0.0000;
	155	234.999993	3.81268169	120	0	1.11	263.9	1	235	94	0	0	0	0	0	0	0	0	0	0	0	0.1418	0.0000	0.0000	0.0000;
	155	0	0	120	0	1.09091	237.5	0	205	130	0	0	0	0	0	0	0	0	0	0	0	0.0000	0.0000	0.0000	0.0000;
	155	260.999993	3.81268169	120	0	1.11	287.3	1	261	104	0	0	0	0	0	0	0	0	0	0	0	0.1418	0.0000	0.0000	0.0000;
	156	0	0	120	0	1.09091	237.5	0	205	130	0	0	0	0	0	0	0	0	0	0	0	0.0000	0.0000	0.0000	0.0000;
	156	204.999999	9.580872	120	0	1.11	237.5	1	205	130	0	0	0	0	0	0	0	0	0	0	0	0.7542	0.0000	0.0000	0.0000;
	156	205.999999	9.580872	120	0	1.11	238.4	1	206	120	0	0	0	0	0	0	0	0	0	0	0	0.7542	0.0000	0.0000	0.0000;
	156	205.999999	9.580872	120	0	1.11	238.4	1	206	120	0	0	0	0	0	0	0	0	0	0	0	0.7542	0.0000	0.0000	0.0000;
	159	205.999998	119.999993	120	0	1.03499656	238.4	1	206	120	0	0	0	0	0	0	0	0	0	0	0	0.6019	0.0000	0.1487	0.0000;
	165	200	4.05746799	120	-0.009	1.10999999	233.2	1	200	150	0	0	0	0	0	0	0	0	0	0	0	15.6798	0.0000	0.0000	0.0000;
	165	200	4.05746799	120	-0.009	1.10999999	233.2	1	200	150	0	0	0	0	0	0	0	0	0	0	0	15.6798	0.0000	0.0000	0.0000;
	166	200	74.7562869	120	0	1.11	233.2	1	200	150	0	0	0	0	0	0	0	0	0	0	0	15.6903	0.0000	0.0000	0.0000;
	166	200	74.7562869	120	0	1.11	233.2	1	200	150	0	0	0	0	0	0	0	0	0	0	0	15.6903	0.0000	0.0000	0.0000;
	205	179	-36.7681887	110	-60	1.02491543	210.1	1	179	140	0	0	0	0	0	0	0	0	0	0	0	109.4591	0.0000	0.0000	0.0000;
	205	179	-36.7681887	110	-60	1.02491543	210.1	1	179	140	0	0	0	0	0	0	0	0	0	0	0	109.4591	0.0000	0.0000	0.0000;
	205	0	0	110	-60	1.0325	210.1	0	179	140	0	0	0	0	0	0	0	0	0	0	0	0.0000	0.0000	0.0000	0.0000;
	206	179	-7.2750715	110	-60	1.02490535	210.1	1	179	140	0	0	0	0	0	0	0	0	0	0	0	109.4593	0.0000	0.0000	0.0000;
	215	37.079	1.50591211	20	0	1.10811483	58.5	1	37.079	37.079	0	0	0	0	0	0	0	0	0	0	0	107.5991	0.0000	0.0000	0.0000;
	215	33.708	1.50591211	20	0	1.10811483	53.9	1	33.708	33.708	0	0	0	0	0	0	0	0	0	0	0	107.5991	0.0000	0.0000	0.0000;
	215	33.708	1.50591211	20	0	1.10811483	53.9	1	33.708	33.708	0	0	0	0	0	0	0	0	0	0	0	107.5991	0.0000	0.0000	0.0000;
	215	15.506	1.50591211	20	0	1.10811483	30.5	1	15.506	15.506	0	0	0	0	0	0	0	0	0	0	0	107.5991	0.0000	0.0000	0.0000;
	239	4	7.99999957	8	0	1.06651505	15.4	1	4	4	0	0	0	0	0	0	0	0	0	0	0	113.0475	0.0000	2.2725	0.0000;
	246	370	88.6681135	220	-14	1.07668151	430.5	1	370	290	0	0	0	0	0	0	0	0	0	0	0	21.9876	0.0000	0.0000	0.0000;
	291	2	1.9999994	2	0	1.09644825	3.2	1	2	2	0	0	0	0	0	0	0	0	0	0	0	108.1614	0.0000	1.6247	0.0000;
	294	3	1.99999923	2	0	1.08126572	4.8	1	3	3	0	0	0	0	0	0	0	0	0	0	0	111.9574	0.0000	1.2817	0.0000;
	306	9.167	6.99999897	7	0	1.0901068	24	1	9.167	9.167	0	0	0	0	0	0	0	0	0	0	0	103.3262	0.0000	0.9488	0.0000;
	306	16.296	6.99999897	7	0	1.0901068	27.9	1	16.296	16.296	0	0	0	0	0	0	0	0	0	0	0	103.3262	0.0000	0.9488	0.0000;
	306	11.204	7.61599897	7.616	6	1.0901068	31	1	11.204	11.204	0	0	0	0	0	0	0	0	0	0	0	103.3262	0.0000	0.9488	0.0000;
	306	9.167	6.99999897	7	0	1.0901068	26.9	1	9.167	9.167	0	0	0	0	0	0	0	0	0	0	0	103.3262	0.0000	0.9488	0.0000;
	306	9.167	7.92799897	7.928	0	1.0901068	28.1	1	9.167	9.167	0	0	0	0	0	0	0	0	0	0	0	103.3262	0.0000	0.9488	0.0000;
	307	36.5	14.9999984	15	0	1.09693493	57	1	36.5	36.5	0	0	0	0	0	0	0	0	0	0	0	103.3265	0.0000	0.6155	0.0000;
	307	36.5	14.9999984	15	0	1.09693493	57	1	36.5	36.5	0	0	0	0	0	0	0	0	0	0	0	103.3265	0.0000	0.6155	0.0000;
	308	32	14.9999979	15	0	1.10304305	36.7	1	32	32	0	0	0	0	0	0	0	0	0	0	0	102.6700	0.0000	0.4597	0.0000;
	308	40	17.5959979	17.596	0	1.10304305	57.7	1	40	40	0	0	0	0	0	0	0	0	0	0	0	102.6700	0.0000	0.4597	0.0000;
	310	35	19.9999987	20	0	1.10475083	53.9	1	35	35	0	0	0	0	0	0	0	0	0	0	0	101.5340	0.0000	0.7416	0.0000;
	310	75	27.2469987	27.247	0	1.10475083	103.6	1	75	75	0	0	0	0	0	0	0	0	0	0	0	101.5340	0.0000	0.7416	0.0000;
	311	45	39.9999981	40	0	1.10495171	64	1	45	45	0	0	0	0	0	0	0	0	0	0	0	101.8847	0.0000	0.5110	0.0000;
	362	37.8	11.9999981	12	0	1.10542461	47.8	1	37.8	37.8	0	0	0	0	0	0	0	0	0	0	0	107.4059	0.0000	0.5047	0.0000;
	363	37.8	11.9999994	12	0	1.08715308	47.8	1	37.8	37.8	0	0	0	0	0	0	0	0	0	0	0	109.5898	0.0000	1.5619	0.0000;
	364	37.8	9.4900269	12	0	1.11585232	47.8	1	37.8	37.8	0	0	0	0	0	0	0	0	0	0	0	105.9978	0.0000	0.0000	0.0000;
	364	45	9.4900269	12	0	1.11585232	71	1	45	45	0	0	0	0	0	0	0	0	0	0	0	105.9978	0.0000	0.0000	0.0000;
	365	37.8	11.9999994	12	0	1.09732101	47.8	1	37.8	37.8	0	0	0	0	0	0	0	0	0	0	0	108.7049	0.0000	1.5402	0.0000;
	365	37.8	11.9999994	12	0	1.09732101	47.8	1	37.8	37.8	0	0	0	0	0	0	0	0	0	0	0	108.7049	0.0000	1.5402	0.0000;
	382	15.0000003	5.19056288	10	0	1.11556121	55.9	1	55	15	0	0	0	0	0	0	0	0	0	0	0	0.0000	3.8186	0.0000	0.0000;
	382	120	79.7771344	120	-10	1.11556121	255.9	1	226	120	0	0	0	0	0	0	0	0	0	0	0	0.0000	3.8186	0.0000	0.0000;
	383	15.0000003	8.84033196e-06	10	0	1.11448338	55.9	1	55	15	0	0	0	0	0	0	0	0	0	0	0	0.0000	3.0846	0.0000	0.1110;
	386	3	1.99999823	2	0	1.09377432	4.8	1	3	3	0	0	0	0	0	0	0	0	0	0	0	104.2331	0.0000	0.5529	0.0000;
	421	4	3.99999954	4	0	1.0789866	7.7	1	4	4	0	0	0	0	0	0	0	0	0	0	0	110.2530	0.0000	2.1155	0.0000;
	431	7	6.03388263	8	0	1.10552826	13.6	1	7	7	0	0	0	0	0	0	0	0	0	0	0	109.5819	0.0000	0.0000	0.0000;
	440	2.5	1.99999862	2	0	1.06066437	3.6	1	2.5	2.5	0	0	0	0	0	0	0	0	0	0	0	101.3373	0.0000	0.7124	0.0000;
	447	3.5	8.91994797	20	0	1.0885168	21.3	1	3.5	3.5	0	0	0	0	0	0	0	0	0	0	0	109.2946	0.0000	0.0000	0.0000;
	447	3.5	8.91994797	20	0	1.0885168	21.3	1	3.5	3.5	0	0	0	0	0	0	0	0	0	0	0	109.2946	0.0000	0.0000	0.0000;
	463	0	1.99999544	2	0	1.08228157	4	1	0	0	0	0	0	0	0	0	0	0	0	0	0	111.1374	0.0000	0.2153	0.0000;
	482	1.4	0.699998881	0.7	0	1.05040262	1.7	1	1.4	1.4	0	0	0	0	0	0	0	0	0	0	0	102.1116	0.0000	0.8767	0.0000;
	490	3.5	2.99999951	3	0	1.08637581	5.3	1	3.5	3.5	0	0	0	0	0	0	0	0	0	0	0	108.2742	0.0000	1.9954	0.0000;
	522	0	4.2751166e-06	1	0	1.09121701	1.9	1	0	0	0	0	0	0	0	0	0	0	0	0	0	101.7905	0.0000	0.0000	0.2333;
	533	0.5	0.999999101	1	0	1.09640657	1.9	1	0.5	0.5	0	0	0	0	0	0	0	0	0	0	0	108.9118	0.0000	1.0908	0.0000;
	534	35.89	13.9999993	14	0	1.09758103	53.9	1	35.89	35.89	0	0	0	0	0	0	0	0	0	0	0	108.1005	0.0000	1.4109	0.0000;
	534	22.086	13.9999993	14	0	1.09758103	34.9	1	22.086	22.086	0	0	0	0	0	0	0	0	0	0	0	108.1005	0.0000	1.4109	0.0000;
	534	22.086	13.9999993	14	0	1.09758103	34.9	1	22.086	22.086	0	0	0	0	0	0	0	0	0	0	0	108.1005	0.0000	1.4109	0.0000;
	534	72.469	24.0009993	24.001	0	1.09758103	107.7	1	72.469	72.469	0	0	0	0	0	0	0	0	0	0	0	108.1005	0.0000	1.4109	0.0000;
	534	72.469	24.0009993	24.001	0	1.09758103	107.7	1	72.469	72.469	0	0	0	0	0	0	0	0	0	0	0	108.1005	0.0000	1.4109	0.0000;
	535	24.573	17.4999994	17.5	0	1.09253754	36.5	1	24.573	24.573	0	0	0	0	0	0	0	0	0	0	0	107.9573	0.0000	1.6117	0.0000;
	535	23.805	17.4999994	17.5	0	1.09253754	35.6	1	23.805	23.805	0	0	0	0	0	0	0	0	0	0	0	107.9573	0.0000	1.6117	0.0000;
	535	95.99	28.0019994	28.002	0	1.09253754	128.1	1	95.99	95.99	0	0	0	0	0	0	0	0	0	0	0	107.9573	0.0000	1.6117	0.0000;
	535	80.631	28.0019994	28.002	0	1.09253754	108.7	1	80.631	80.631	0	0	0	0	0	0	0	0	0	0	0	107.9573	0.0000	1.6117	0.0000;
	549	1.4	0.699999637	0.7	0	1.06884557	1.7	1	1.4	1.4	0	0	0	0	0	0	0	0	0	0	0	110.5291	0.0000	2.7010	0.0000;
	557	25.724	5.05199964	5.052	0	1.07036026	34.4	1	25.724	25.724	0	0	0	0	0	0	0	0	0	0	0	109.8103	0.0000	2.7306	0.0000;
	557	21.184	5.05199964	5.052	0	1.07036026	28.5	1	21.184	21.184	0	0	0	0	0	0	0	0	0	0	0	109.8103	0.0000	2.7306	0.0000;
	557	19.671	4.99999964	5	0	1.07036026	26.5	1	19.671	19.671	0	0	0	0	0	0	0	0	0	0	0	109.8103	0.0000	2.7306	0.0000;
	557	22.697	5.05199964	5.052	0	1.07036026	30.4	1	22.697	22.697	0	0	0	0	0	0	0	0	0	0	0	109.8103	0.0000	2.7306	0.0000;
	557	25.724	5.05199964	5.052	0	1.07036026	34.4	1	25.724	25.724	0	0	0	0	0	0	0	0	0	0	0	109.8103	0.0000	2.7306	0.0000;
	558	31.032	5.06399965	5.064	0	1.06774568	34.4	1	31.032	31.032	0	0	0	0	0	0	0	0	0	0	0	109.7537	0.0000	2.7765	0.0000;
	558	31.032	5.06399965	5.064	0	1.06774568	34.4	1	31.032	31.032	0	0	0	0	0	0	0	0	0	0	0	109.7537	0.0000	2.7765	0.0000;
	558	22.817	4.99999965	5	0	1.06774568	26.5	1	22.817	22.817	0	0	0	0	0	0	0	0	0	0	0	109.7537	0.0000	2.7765	0.0000;
	558	30.119	5.06399965	5.064	0	1.06774568	34.4	1	30.119	30.119	0	0	0	0	0	0	0	0	0	0	0	109.7537	0.0000	2.7765	0.0000;
	594	2.58	1.34997591	1.35	0	1.07434814	4.5	1	2.58	2.58	0	0	0	0	0	0	0	0	0	0	0	107.2704	0.0000	0.0399	0.0000;
	601	5.05	2.23999398	2.24	0	1.07009085	5.5	1	5.05	5.05	0	0	0	0	0	0	0	0	0	0	0	107.4666	0.0000	0.1574	0.0000;
	622	110	6.20361774	30	0	1.08606933	114	1	110	110	0	0	0	0	0	0	0	0	0	0	0	104.0990	0.0000	0.0000	0.0000;
	622	0	0	30	0	1.0778	65.3	0	0	0	0	0	0	0	0	0	0	0	0	0	0	0.0000	0.0000	0.0000	0.0000;
	626	2.8	2.28735521e-05	1.12	0	1.08589139	3	1	2.8	2.8	0	0	0	0	0	0	0	0	0	0	0	104.7731	0.0000	0.0000	0.0494;
	630	5.61	1.85497192	3.14	0	1.07610156	6.4	1	5.61	5.61	0	0	0	0	0	0	0	0	0	0	0	107.4776	0.0000	0.0000	0.0000;
	631	6.73	1.86482318	3.14	0	1.07633427	7.4	1	6.73	6.73	0	0	0	0	0	0	0	0	0	0	0	107.4317	0.0000	0.0000	0.0000;
	655	1.23	0.449998326	0.45	0	1.04764232	1.3	1	1.23	1.23	0	0	0	0	0	0	0	0	0	0	0	108.3981	0.0000	0.5875	0.0000;
	660	135.000003	46.7603994	120	-20	1.11833031	255	1	225	135	0	0	0	0	0	0	0	0	0	0	0	0.0000	0.2925	0.0000	0.0000;
	661	135.000003	36.2348401	120	-20	1.11808646	255	1	225	135	0	0	0	0	0	0	0	0	0	0	0	0.0000	0.2885	0.0000	0.0000;
	667	1.91	1.00999681	1.01	0	1.05303108	2.2	1	1.91	1.91	0	0	0	0	0	0	0	0	0	0	0	107.3716	0.0000	0.3091	0.0000;
	671	9.53	9.62490788e-06	3.36	0	1.07808708	10.1	1	9.53	9.53	0	0	0	0	0	0	0	0	0	0	0	107.1207	0.0000	0.0000	0.1080;
	673	3.36	1.11993663	1.12	0	1.08057333	4.4	1	3.36	3.36	0	0	0	0	0	0	0	0	0	0	0	103.6964	0.0000	0.0167	0.0000;
	681	190	1.63015622e-05	30	0	1.09298008	192.4	1	190	190	0	0	0	0	0	0	0	0	0	0	0	103.8552	0.0000	0.0000	0.0751;
	681	24.998	1.63015622e-05	30	0	1.09298008	77.5	1	24.998	24.998	0	0	0	0	0	0	0	0	0	0	0	103.8552	0.0000	0.0000	0.0751;
	687	11.21	1.5172426e-05	5.61	0	1.08778802	12.5	1	11.21	11.21	0	0	0	0	0	0	0	0	0	0	0	104.6065	0.0000	0.0000	0.0745;
	699	6.73	0.00612912239	3.36	0	1.0868187	7.5	1	6.73	6.73	0	0	0	0	0	0	0	0	0	0	0	104.9368	0.0000	0.0000	0.0024;
	702	1.12	0.435431611	1.12	0	1.0831339	1.6	1	1.12	1.12	0	0	0	0	0	0	0	0	0	0	0	103.9208	0.0000	0.0000	0.0000;
	712	10	3.99999594	4	0	1.08211319	10.8	1	10	10	0	0	0	0	0	0	0	0	0	0	0	103.2591	0.0000	0.2415	0.0000;
	718	1.57	1.11999848	1.12	0	1.0470869	1.9	1	1.57	1.57	0	0	0	0	0	0	0	0	0	0	0	108.4960	0.0000	0.6477	0.0000;
	722	2.8	1.1199932	1.12	0	1.07262753	3	1	2.8	2.8	0	0	0	0	0	0	0	0	0	0	0	107.3386	0.0000	0.1394	0.0000;
	731	1.68	0.559993904	0.56	0	1.07794645	4.3	1	1.68	1.68	0	0	0	0	0	0	0	0	0	0	0	105.0444	0.0000	0.1615	0.0000;
	736	130	-2.06795728	120	-20	1.09294651	255	1	225	130	0	0	0	0	0	0	0	0	0	0	0	0.0000	3.7611	0.0000	0.0000;
	740	2.24	0	0	0	1.09368343	4.3	1	2.24	2.24	0	0	0	0	0	0	0	0	0	0	0	104.0447	0.0000	0.1503	0.0000;
	747	5.83	0.987963348	3.36	0	1.06165763	6.7	1	5.83	5.83	0	0	0	0	0	0	0	0	0	0	0	108.3473	0.0000	0.0000	0.0000;
	759	90	9.83687615e-06	30	0	1.08447978	105.2	1	90	90	0	0	0	0	0	0	0	0	0	0	0	103.0270	0.0000	0.0000	0.0976;
	760	0	0	0	0	1.06824	1.3	0	0	0	0	0	0	0	0	0	0	0	0	0	0	0.0000	0.0000	0.0000	0.0000;
	778	12.34	4.99647687	30	0	1.07386952	32.4	1	12.34	12.34	0	0	0	0	0	0	0	0	0	0	0	104.9905	0.0000	0.0000	0.0000;
	780	1.68	0.0217391574	0.9	0	1.08603248	1.9	1	1.68	1.68	0	0	0	0	0	0	0	0	0	0	0	104.1022	0.0000	0.0000	0.0000;
	783	6	2.74690289e-05	3	0	1.0857626	6.7	1	6	6	0	0	0	0	0	0	0	0	0	0	0	105.0216	0.0000	0.0000	0.0435;
	788	2	0.999962029	1	0	1.06597323	95.9	1	2	2	0	0	0	0	0	0	0	0	0	0	0	106.0481	0.0000	0.0265	0.0000;
	792	68	2.70990562	23	0	1.07421905	71.8	1	68	0	0	0	0	0	0	0	0	0	0	0	0	104.9407	0.0000	0.0000	0.0000;
	792	0	0	23	0	1.05369	71.8	0	68	0	0	0	0	0	0	0	0	0	0	0	0	0.0000	0.0000	0.0000	0.0000;
	792	0	0	11	0	1.05369	23.7	0	21	0	0	0	0	0	0	0	0	0	0	0	0	0.0000	0.0000	0.0000	0.0000;
	792	0	0	10	0	1.05369	23.3	0	21	0	0	0	0	0	0	0	0	0	0	0	0	0.0000	0.0000	0.0000	0.0000;
	803	1.35381549e-07	-0.00199117297	10	-0.002	1.08877301	55.9	1	55	0	0	0	0	0	0	0	0	0	0	0	0	0.0000	7.2406	0.0000	0.1125;
	804	2.13156874e-07	9.99997139	10	0	1.06988181	120.4	1	120	0	0	0	0	0	0	0	0	0	0	0	0	0.0000	4.5996	0.0324	0.0000;
	809	0	0	0	0	1.07004	3.3	0	0	0	0	0	0	0	0	0	0	0	0	0	0	0.0000	0.0000	0.0000	0.0000;
	815	3.36	1.65098841e-05	2.02	0	1.07886058	3.9	1	3.36	3.36	0	0	0	0	0	0	0	0	0	0	0	107.1184	0.0000	0.0000	0.0604;
	834	1.12	0	0	0	1.07107939	1.5	1	1.12	1.12	0	0	0	0	0	0	0	0	0	0	0	105.9674	0.0000	0.3451	0.0000;
	840	30	8.09999623	8.1	0	1.07519335	51.6	1	30	30	0	0	0	0	0	0	0	0	0	0	0	103.6598	0.0000	0.2634	0.0000;
	840	30	8.09999623	8.1	0	1.07519335	51.6	1	30	30	0	0	0	0	0	0	0	0	0	0	0	103.6598	0.0000	0.2634	0.0000;
	844	1.9	0.449992938	0.45	0	1.10777774	3.5	1	1.9	1.9	0	0	0	0	0	0	0	0	0	0	0	99.4730	0.0000	0.1391	0.0000;
	848	3.01	0	0	0	1.08607557	5.6	1	3.01	3.01	0	0	0	0	0	0	0	0	0	0	0	101.8815	0.0000	0.7223	0.0000;
	854	7	1.34999878	1.35	0	1.08659353	14.6	1	7	7	0	0	0	0	0	0	0	0	0	0	0	101.2745	0.0000	0.8021	0.0000;
	873	68	15.6914037	41.2	0	1.09484115	87.7	1	68	68	0	0	0	0	0	0	0	0	0	0	0	98.2385	0.0000	0.0000	0.0000;
	876	0	0	0	0	1.0397	1.9	0	0	0	0	0	0	0	0	0	0	0	0	0	0	0.0000	0.0000	0.0000	0.0000;
	896	0	0	45	-10	1.06882	65.8	0	0	0	0	0	0	0	0	0	0	0	0	0	0	0.0000	0.0000	0.0000	0.0000;
	896	0	0	45	-10	1.06882	71.1	0	0	0	0	0	0	0	0	0	0	0	0	0	0	0.0000	0.0000	0.0000	0.0000;
	896	55	44.9999951	45	-10	1.09017829	71.1	1	55	55	0	0	0	0	0	0	0	0	0	0	0	100.5196	0.0000	0.1990	0.0000;
	902	0.111	0	0	0	1.03934753	0.3	1	0.111	0.111	0	0	0	0	0	0	0	0	0	0	0	109.5412	0.0000	1.2651	0.0000;
	903	0	0	0	0	1.01428	2.5	0	0	0	0	0	0	0	0	0	0	0	0	0	0	0.0000	0.0000	0.0000	0.0000;
	952	2.6	0.599994245	0.6	0	1.0847468	3	1	2.6	2.6	0	0	0	0	0	0	0	0	0	0	0	103.3378	0.0000	0.1706	0.0000;
	958	0	0	0	0	1.04967	2.5	0	0	0	0	0	0	0	0	0	0	0	0	0	0	0.0000	0.0000	0.0000	0.0000;
	972	27	18.0390709	32	5	1.11024105	54	1	27	27	0	0	0	0	0	0	0	0	0	0	0	98.6616	0.0000	0.0000	0.0000;
	972	0	0	32	5	1.08182	42.5	0	0	0	0	0	0	0	0	0	0	0	0	0	0	0.0000	0.0000	0.0000	0.0000;
	972	3	3.99032904	7	1	1.11024105	11.4	1	3	3	0	0	0	0	0	0	0	0	0	0	0	98.6616	0.0000	0.0000	0.0000;
	972	80	22.0852114	110	-40	1.11024105	162.2	1	80	80	0	0	0	0	0	0	0	0	0	0	0	98.6616	0.0000	0.0000	0.0000;
	973	80	33.9828721	110	-40	1.10905124	162.2	1	80	80	0	0	0	0	0	0	0	0	0	0	0	98.8630	0.0000	0.0000	0.0000;
...
];

%% branch data
%	fbus	tbus	r	x	b	rateA	rateB	rateC	ratio	angle	status	angmin	angmax	Pf	Qf	Pt	Qt	mu_Sf	mu_St	mu_angmin	mu_angmax
mpc.branch = [
	7	8	0.00064	0.0305	0	400	400	400	1.0435	-0.6	1	-360	360	-221.7143	-33.1558	222.0263	48.0243	0.0000	0.0000	0.0000	0.0000;
	26	28	0.00036	0.02519	0	500	500	500	1.0565	0	1	-360	360	-20.2920	19.5253	20.2945	-19.3443	0.0000	0.0000	0.0000	0.0000;
	27	29	0.00036	0.02519	0	500	500	500	1.0566	0	1	-360	360	110.6631	18.4220	-110.6221	-15.5493	0.0000	0.0000	0.0000	0.0000;
	40	42	0.00034	0.02097	0	500	500	500	1.068	0	1	-360	360	30.2105	-48.6510	-30.2000	49.2945	0.0000	0.0000	0.0000	0.0000;
	43	46	0.00034	0.02097	0	500	500	500	1.0569	0	1	-360	360	65.2148	7.1881	-65.2015	-6.3697	0.0000	0.0000	0.0000	0.0000;
	55	57	0.00081	0.03	0	400	400	400	1.0765	0	1	-360	360	45.0749	-74.0048	-45.0169	76.1519	0.0000	0.0000	0.0000	0.0000;
	90	92	0.00075	0.02444	-0.00832	330	330	330	1.0631	0	1	-360	360	-126.6207	-22.6746	126.7359	27.3305	0.0000	0.0000	0.0000	0.0000;
	91	93	0.00075	0.02469	-0.008	330	330	330	1.0632	0	1	-360	360	-125.6151	-22.9966	125.7286	27.6021	0.0000	0.0000	0.0000	0.0000;
	125	128	0.0005	0.02875	-0.016	400	400	400	1.0639	0	1	-360	360	77.2433	-2.9527	-77.2157	6.2751	0.0000	0.0000	0.0000	0.0000;
	149	150	0.00064	0.0305	0	400	400	400	1.0826	0	1	-360	360	-211.7754	-27.5844	212.0531	40.8172	0.0000	0.0000	0.0000	0.0000;
	155	158	0.000232	0.023	0	500	500	500	1.089	0	1	-360	360	-29.5371	-69.0425	29.5497	70.2909	0.0000	0.0000	0.0000	0.0000;
	156	159	0.000232	0.023	0	500	500	500	1.0893	0	1	-360	360	-117.7687	-68.1756	117.8101	72.2773	0.0000	0.0000	0.0000	0.0000;
	170	172	0.00035	0.02375	0	500	500	500	1.1049	0	1	-360	360	73.9814	-93.5272	-73.9299	97.0208	0.0000	0.0000	0.0000	0.0000;
	183	184	0.00059	0.03093	0	400	400	400	1.091	0	1	-360	360	-104.3705	-58.5112	104.4521	62.7891	0.0000	0.0000	0.0000	0.0000;
	190	192	0.0004	0.03	0	500	500	500	1.1321	0	1	-360	360	-150.3946	-134.9186	150.5769	148.5856	0.0000	0.0000	0.0000	0.0000;
	2735	158	0.00031	0.00338	0.0992	1386	1386	1386	0	0	1	-360	360	89.1898	0.5630	-89.1667	-10.9414	0.0000	0.0000	0.0000	0.0000;
	2735	159	0.00031	0.00338	0.0992	1386	1386	1386	0	0	1	-360	360	86.0842	-0.5630	-86.0627	-9.8333	0.0000	0.0000	0.0000	0.0000;
	2736	68	0.014341	0.083531	0.126034	415	415	415	0	0	1	-360	360	125.0000	0.8171	-123.1472	-5.0813	0.0000	0.0000	0.0000	0.0000;
	2734	76	0.01219	0.070659	0.117418	412	412	412	0	0	1	-360	360	-134.6088	3.5787	136.4560	-7.1490	0.0000	0.0000	0.0000	0.0000;
	2734	105	0.011781	0.07087	0.116838	412	412	412	0	0	1	-360	360	-136.0292	0.8073	137.8471	-4.0987	0.0000	0.0000	0.0000	0.0000;
	2739	200	9e-06	9.4e-05	0	924	924	924	0	0	1	-360	360	400.0000	-0.0000	-399.9866	0.1395	0.0000	0.0000	0.0000	0.0000;
	128	2732	0.0015	0.01469	0.40384	1386	1386	1386	0	0	0	-360	360	0.0000	0.0000	0.0000	0.0000	0.0000	0.0000	0.0000	0.0000;
	127	2733	0.001419	0.014675	0.4896	1386	1386	1386	0	0	1	-360	360	639.4250	16.0420	-634.0640	-13.2720	0.0000	0.0000	0.0000	0.0000;
	2737	148	0.001651	0.015909	0.046948	373	373	373	0	0	1	-360	360	-39.4503	-14.3756	39.4730	8.8218	0.0000	0.0000	0.0000	0.0000;
	2737	149	0.001651	0.015909	0.046948	373	373	373	0	0	1	-360	360	-40.1477	-14.2704	40.1712	8.7235	0.0000	0.0000	0.0000	0.0000;
	2738	48	0.00188	0.02287	0.6432	831	831	831	0	0	1	-360	360	-232.9585	-79.2932	233.9783	23.8028	0.0000	0.0000	0.0000	0.0000;
	2738	49	0.00188	0.02287	0.6432	831	831	831	0	0	1	-360	360	-232.2255	-79.2538	233.2390	23.6895	0.0000	0.0000	0.0000	0.0000;
	82	2732	0.003519	0.039313	1.0336	1621	1621	1621	0	0	1	-360	360	311.9671	-16.5293	-308.7700	-58.2530	0.0000	0.0000	0.0000	0.0000;
	43	23	0.01345	0.081141	0.141134	339	339	339	0	0	1	-360	360	205.1509	60.9768	-200.0267	-46.4471	0.0000	0.0000	0.0000	0.0000;
	26	90	0.009091	0.062401	0.111417	457	457	457	0	0	1	-360	360	123.9267	-10.9292	-122.7923	5.0576	0.0000	0.0000	0.0000	0.0000;
	27	91	0.00868	0.06405	0.096994	457	457	457	0	0	1	-360	360	178.1637	-11.9147	-175.9250	16.5443	0.0000	0.0000	0.0000	0.0000;
	146	30	0.016961	0.123659	0.196988	373	373	373	0	0	1	-360	360	87.7401	34.7279	-86.3773	-47.7368	0.0000	0.0000	0.0000	0.0000;
	135	34	0.00512	0.02618	0.029621	335	335	335	0	0	1	-360	360	-80.9717	88.7244	81.5850	-89.1805	0.0000	0.0000	0.0000	0.0000;
	134	20	0.01068	0.061961	0.094961	415	415	415	0	0	1	-360	360	-183.9655	71.9485	187.4237	-63.3750	0.0000	0.0000	0.0000	0.0000;
	165	21	0.014651	0.105891	0.170852	373	373	373	0	0	1	-360	360	113.4185	31.0595	-111.6832	-38.6478	0.0000	0.0000	0.0000	0.0000;
	41	109	0.01488	0.08161	0.114805	347	347	347	0	0	1	-360	360	-105.6385	17.2199	107.0723	-23.3415	0.0000	0.0000	0.0000	0.0000;
	40	91	0.011159	0.07231	0.103673	362	362	362	0	0	1	-360	360	-156.1066	25.1129	158.4278	-22.7124	0.0000	0.0000	0.0000	0.0000;
	179	83	0.008616	0.077645	0.122239	373	373	373	0	0	1	-360	360	-148.2723	-9.7693	149.8672	9.3705	0.0000	0.0000	0.0000	0.0000;
	203	166	0.01176	0.068289	0.102802	362	362	362	0	0	1	-360	360	-249.2648	-37.1165	255.9944	64.1920	0.0000	0.0000	0.0000	0.0000;
	194	166	0.016818	0.089091	0.129935	400	400	400	0	0	1	-360	360	-171.2445	-27.2505	175.7199	35.6969	0.0000	0.0000	0.0000	0.0000;
	193	165	0.013843	0.087025	0.134842	427	427	427	0	0	1	-360	360	-176.0245	-33.1155	179.9462	41.9324	0.0000	0.0000	0.0000	0.0000;
	207	168	0.01676	0.097169	0.148685	274	274	274	0	0	1	-360	360	20.7254	-13.1549	-20.6608	-3.8243	0.0000	0.0000	0.0000	0.0000;
	43	12	0.01269	0.074979	0.130196	377	377	377	0	0	1	-360	360	225.0724	71.3434	-219.2062	-51.7517	0.0000	0.0000	0.0000	0.0000;
	198	18	0.014091	0.10413	0.15972	373	373	373	0	0	1	-360	360	-88.0197	-36.4610	89.0800	25.5337	0.0000	0.0000	0.0000	0.0000;
	100	55	0.003719	0.0438	0.100962	457	457	457	0	0	1	-360	360	-14.2504	-16.1538	14.2598	4.0400	0.0000	0.0000	0.0000	0.0000;
	163	82	0.00194	0.02056	0.51584	1316	1316	1316	0	0	1	-360	360	-517.0305	-44.7507	521.9734	41.9665	0.0000	0.0000	0.0000	0.0000;
	45	9	0.0015	0.01506	0.4032	1386	1386	1386	0	0	1	-360	360	374.1043	87.5776	-372.0310	-110.2707	0.0000	0.0000	0.0000	0.0000;
	185	151	0.00294	0.03463	0.9216	693	693	693	0	0	1	-360	360	27.4017	-53.0753	-27.3808	-45.6964	0.0000	0.0000	0.0000	0.0000;
	121	57	0.00169	0.01994	0.50624	831	831	831	0	0	1	-360	360	-17.4425	-10.3674	17.4519	-45.0361	0.0000	0.0000	0.0000	0.0000;
	29	93	0.00137	0.01625	0.41184	1386	1386	1386	0	0	1	-360	360	267.5905	-36.5622	-266.6915	2.1791	0.0000	0.0000	0.0000	0.0000;
	28	123	0.00231	0.02769	0.70144	1386	1386	1386	0	0	1	-360	360	422.2520	-65.7815	-418.4721	34.0492	0.0000	0.0000	0.0000	0.0000;
	25	192	0.00207	0.02474	0.664	831	831	831	0	0	1	-360	360	437.5144	51.7092	-433.5232	-70.8513	0.0000	0.0000	0.0000	0.0000;
	120	64	0.0015	0.01788	0.4512	831	831	831	0	0	1	-360	360	148.5318	-24.9328	-148.2309	-21.0134	0.0000	0.0000	0.0000	0.0000;
	122	65	0.00469	0.05544	1.4048	831	831	831	0	0	1	-360	360	193.8625	-78.3776	-192.2637	-57.1370	0.0000	0.0000	0.0000	0.0000;
	82	31	0.00331	0.03425	0.85888	1150	1150	1150	0	0	1	-360	360	-123.1710	-39.6566	123.6339	-49.2640	0.0000	0.0000	0.0000	0.0000;
	92	28	0.00219	0.02369	0.59584	1316	1316	1316	0	0	1	-360	360	-182.0310	-14.1007	182.7016	-43.8133	0.0000	0.0000	0.0000	0.0000;
	11	4	0.01674	0.09711	0.144232	461	461	461	0	0	1	-360	360	-231.3381	8.3225	239.6534	23.6197	0.0000	0.0000	0.0000	0.0000;
	30	12	0.0057	0.0407	0.06021	373	373	373	0	0	1	-360	360	-34.5626	20.9406	34.6552	-26.8457	0.0000	0.0000	0.0000	0.0000;
	33	4	0.004419	0.032229	0.049852	392	392	392	0	0	1	-360	360	211.7327	-2.2962	-210.0709	8.5107	0.0000	0.0000	0.0000	0.0000;
	17	7	0.014591	0.11219	0.165528	427	427	427	0	0	1	-360	360	-60.3866	44.1960	61.1753	-57.5178	0.0000	0.0000	0.0000	0.0000;
	22	10	0.01211	0.087419	0.140166	373	373	373	0	0	1	-360	360	-28.7941	20.4069	28.9696	-34.6075	0.0000	0.0000	0.0000	0.0000;
	26	5	0.009773	0.050516	0.088959	377	377	377	0	0	1	-360	360	247.3334	14.1771	-242.4504	0.3464	0.0000	0.0000	0.0000	0.0000;
	17	3	0.01068	0.07895	0.122597	274	274	274	0	0	1	-360	360	136.8117	36.4586	-135.0039	-37.5113	0.0000	0.0000	0.0000	0.0000;
	26	19	0.0057	0.039521	0.075533	480	480	480	0	0	1	-360	360	255.1392	25.5200	-252.0856	-13.4865	0.0000	0.0000	0.0000	0.0000;
	27	20	0.0057	0.039521	0.075533	480	480	480	0	0	1	-360	360	346.2402	21.2094	-340.6632	8.3196	0.0000	0.0000	0.0000	0.0000;
	10	6	0.00525	0.03988	0.061952	373	373	373	0	0	1	-360	360	-6.0515	-51.5189	6.1658	45.5563	0.0000	0.0000	0.0000	0.0000;
	32	10	0.00093	0.00651	0.011132	373	373	373	0	0	1	-360	360	-102.9509	-22.4930	103.0465	21.9593	0.0000	0.0000	0.0000	0.0000;
	23	11	0.00205	0.01326	0.022429	415	415	415	0	0	1	-360	360	19.9366	22.1359	-19.9188	-24.4572	0.0000	0.0000	0.0000	0.0000;
	34	5	0.007831	0.043	0.04962	335	335	335	0	0	1	-360	360	-155.2005	49.4035	156.9608	-45.6194	0.0000	0.0000	0.0000	0.0000;
	19	4	0.00293	0.01599	0.024781	362	362	362	0	0	1	-360	360	151.1577	5.9434	-150.5927	-5.7899	0.0000	0.0000	0.0000	0.0000;
	26	1	0.00155	0.01169	0.018198	747	747	747	0	0	1	-360	360	77.1546	80.6918	-76.9955	-81.7147	0.0000	0.0000	0.0000	0.0000;
	27	2	0.00155	0.01169	0.018198	747	747	747	0	0	1	-360	360	56.7640	69.8099	-56.6602	-71.2524	0.0000	0.0000	0.0000	0.0000;
	27	33	0.003841	0.028531	0.045883	392	392	392	0	0	1	-360	360	322.6759	36.1883	-319.3826	-17.2870	0.0000	0.0000	0.0000	0.0000;
	24	33	2e-06	2.1e-05	0	392	392	392	0	0	1	-360	360	-107.6497	-19.5812	107.6499	19.5833	0.0000	0.0000	0.0000	0.0000;
	25	9	0.00298	0.03417	0.93504	831	831	831	0	0	1	-360	360	-24.6512	-85.9255	24.7098	-11.0953	0.0000	0.0000	0.0000	0.0000;
	28	25	0.00358	0.04262	1.0944	1386	1386	1386	0	0	1	-360	360	605.0607	37.0053	-592.7755	-7.0452	0.0000	0.0000	0.0000	0.0000;
	14	29	0.00336	0.03977	1.02163	1316	1316	1316	0	0	1	-360	360	-543.5533	0.0898	553.0496	2.4869	0.0000	0.0000	0.0000	0.0000;
	8	15	0.00299	0.03675	0.9184	1358	1358	1358	0	0	1	-360	360	154.9415	-54.0502	-154.2626	-34.7189	0.0000	0.0000	0.0000	0.0000;
	8	14	0.00112	0.01329	0.341248	1358	1358	1358	0	0	1	-360	360	-242.2924	16.7609	242.9264	-45.3116	0.0000	0.0000	0.0000	0.0000;
	31	29	0.00063	0.00749	0.392256	1358	1358	1358	0	0	1	-360	360	-365.1487	8.9900	365.9222	-42.7034	0.0000	0.0000	0.0000	0.0000;
	63	59	0.010479	0.060969	0.092047	316	316	316	0	0	1	-360	360	9.0582	-3.7635	-9.0509	-7.3855	0.0000	0.0000	0.0000	0.0000;
	61	56	0.00882	0.065641	0.100662	274	274	274	0	0	1	-360	360	-23.6959	-6.0786	23.7368	-5.8313	0.0000	0.0000	0.0000	0.0000;
	67	35	0.011219	0.065581	0.098349	274	274	274	0	0	1	-360	360	22.8979	-6.3874	-22.8485	-5.0190	0.0000	0.0000	0.0000	0.0000;
	51	35	0.01163	0.07031	0.105802	377	377	377	0	0	1	-360	360	-49.4291	-7.0219	49.6713	-4.0001	0.0000	0.0000	0.0000	0.0000;
	59	43	0.00545	0.040211	0.066986	446	446	446	0	0	1	-360	360	-79.8723	-14.8751	80.1640	8.8351	0.0000	0.0000	0.0000	0.0000;
	60	44	0.00545	0.040211	0.066986	446	446	446	0	0	1	-360	360	-81.3071	-14.6214	81.6090	8.6561	0.0000	0.0000	0.0000	0.0000;
	60	35	0.00837	0.04868	0.073481	419	419	419	0	0	1	-360	360	81.2124	10.5220	-80.7421	-16.6078	0.0000	0.0000	0.0000	0.0000;
	68	52	0.003159	0.02076	0.03146	415	415	415	0	0	1	-360	360	49.6892	-6.9152	-49.6221	3.6636	0.0000	0.0000	0.0000	0.0000;
	52	39	0.006979	0.051961	0.079666	373	373	373	0	0	1	-360	360	46.6955	4.3290	-46.5610	-12.6135	0.0000	0.0000	0.0000	0.0000;
	37	56	0.00374	0.027831	0.042689	274	274	274	0	0	1	-360	360	-128.3381	-5.0722	128.8501	3.7192	0.0000	0.0000	0.0000	0.0000;
	38	36	0.00769	0.057271	0.087894	373	373	373	0	0	1	-360	360	63.8934	-4.2339	-63.6324	-4.3570	0.0000	0.0000	0.0000	0.0000;
	55	38	0.00556	0.04145	0.063598	427	427	427	0	0	1	-360	360	86.6151	0.6403	-86.2711	-5.7685	0.0000	0.0000	0.0000	0.0000;
	67	37	0.004521	0.03368	0.051691	392	392	392	0	0	1	-360	360	-83.5182	-8.9897	83.7842	4.7822	0.0000	0.0000	0.0000	0.0000;
	67	66	0.00151	0.008781	0.013165	377	377	377	0	0	1	-360	360	60.6202	15.3771	-60.5703	-16.6522	0.0000	0.0000	0.0000	0.0000;
	62	43	0.00574	0.042831	0.065727	446	446	446	0	0	1	-360	360	-62.0488	-11.5158	62.2329	4.8378	0.0000	0.0000	0.0000	0.0000;
	63	44	0.00707	0.045409	0.069309	347	347	347	0	0	1	-360	360	-59.8976	-9.7989	60.1077	2.6577	0.0000	0.0000	0.0000	0.0000;
	62	40	0.01213	0.062151	0.093712	347	347	347	0	0	1	-360	360	-55.3488	5.0577	55.6654	-14.8540	0.0000	0.0000	0.0000	0.0000;
	61	41	0.002479	0.017979	0.027588	373	373	373	0	0	1	-360	360	-89.6286	-10.2189	89.7946	8.0701	0.0000	0.0000	0.0000	0.0000;
	47	40	0.002401	0.01494	0.022525	377	377	377	0	0	1	-360	360	-85.9244	-14.9034	86.0744	13.1006	0.0000	0.0000	0.0000	0.0000;
	50	46	0.00167	0.0189	0.54176	1358	1358	1358	0	0	1	-360	360	-113.8755	-11.2987	114.0771	-46.0729	0.0000	0.0000	0.0000	0.0000;
	58	54	0.00109	0.01277	0.34176	1358	1358	1358	0	0	1	-360	360	150.7028	-16.5437	-150.4764	-18.1141	0.0000	0.0000	0.0000	0.0000;
	42	58	0.002259	0.026439	0.70784	1358	1358	1358	0	0	1	-360	360	30.2000	-49.2945	-30.1787	-27.7006	0.0000	0.0000	0.0000	0.0000;
	64	58	0.00094	0.01097	0.29376	1552	1552	1552	0	0	1	-360	360	-272.9519	22.3450	273.6036	-46.8973	0.0000	0.0000	0.0000	0.0000;
	48	65	0.00113	0.01406	0.37488	831	831	831	0	0	1	-360	360	-503.2136	-48.2452	505.8915	40.9317	0.0000	0.0000	0.0000	0.0000;
	53	45	0.00176	0.02144	0.57344	1358	1358	1358	0	0	1	-360	360	-56.9624	-48.8148	57.0197	-13.2674	0.0000	0.0000	0.0000	0.0000;
	96	125	0.004876	0.033616	0.059609	446	446	446	0	0	1	-360	360	-102.1362	2.4995	102.5541	-6.9198	0.0000	0.0000	0.0000	0.0000;
	75	106	0.01093	0.059194	0.08439	290	290	290	0	0	1	-360	360	-43.8422	-8.3838	44.0164	-0.9672	0.0000	0.0000	0.0000	0.0000;
	106	94	0.001942	0.013926	0.022845	446	446	446	0	0	1	-360	360	10.8815	-4.4020	-10.8795	1.6132	0.0000	0.0000	0.0000	0.0000;
	79	85	0.004318	0.029752	0.05264	373	373	373	0	0	1	-360	360	3.4946	5.9484	-3.4912	-12.3856	0.0000	0.0000	0.0000	0.0000;
	131	130	0.000661	0.004959	0.007579	419	419	419	0	0	1	-360	360	136.0770	32.1904	-135.9705	-32.3113	0.0000	0.0000	0.0000	0.0000;
	107	131	0.005372	0.040393	0.060055	419	419	419	0	0	1	-360	360	32.3719	5.7906	-32.3220	-12.7506	0.0000	0.0000	0.0000	0.0000;
	91	131	0.000826	0.005248	0.008683	305	305	305	0	0	1	-360	360	103.8305	18.8626	-103.7550	-19.4398	0.0000	0.0000	0.0000	0.0000;
	100	119	0.015888	0.087603	0.116818	347	347	347	0	0	1	-360	360	-94.1899	1.0820	95.3676	-8.8009	0.0000	0.0000	0.0000	0.0000;
	81	113	0.002169	0.014587	0.025749	316	316	316	0	0	1	-360	360	-13.6053	-7.2890	13.6092	4.2054	0.0000	0.0000	0.0000	0.0000;
	116	101	0.017727	0.116777	0.163611	290	290	290	0	0	1	-360	360	96.0341	-11.0075	-94.7017	-0.1170	0.0000	0.0000	0.0000	0.0000;
	126	74	0.00593	0.04093	0.072145	446	446	446	0	0	1	-360	360	43.9740	8.2391	-43.8729	-16.3471	0.0000	0.0000	0.0000	0.0000;
	108	90	0.003905	0.028471	0.044983	427	427	427	0	0	1	-360	360	-91.7800	6.9727	92.0533	-10.4618	0.0000	0.0000	0.0000	0.0000;
	118	79	0.008161	0.042417	0.061197	385	385	385	0	0	1	-360	360	-88.8010	11.5953	89.3409	-16.3090	0.0000	0.0000	0.0000	0.0000;
	119	78	0.008161	0.042417	0.061197	385	385	385	0	0	1	-360	360	-98.3357	11.3917	98.9939	-15.4963	0.0000	0.0000	0.0000	0.0000;
	79	76	0.005186	0.038388	0.058748	492	492	492	0	0	1	-360	360	-26.5923	1.9516	26.6234	-8.9441	0.0000	0.0000	0.0000	0.0000;
	78	73	0.002128	0.014029	0.022603	335	335	335	0	0	1	-360	360	95.9587	16.4421	-95.7941	-18.1323	0.0000	0.0000	0.0000	0.0000;
	114	78	0.004628	0.027748	0.046115	362	362	362	0	0	1	-360	360	-104.0686	-25.5545	104.5030	22.5302	0.0000	0.0000	0.0000	0.0000;
	103	72	0.011219	0.070744	0.115705	290	290	290	0	0	1	-360	360	-4.7648	-9.9274	4.7676	-4.1760	0.0000	0.0000	0.0000	0.0000;
	110	117	0.006012	0.041467	0.073636	427	427	427	0	0	1	-360	360	-102.8024	1.0275	103.3257	-6.4205	0.0000	0.0000	0.0000	0.0000;
	91	69	0.002066	0.012789	0.020551	316	316	316	0	0	1	-360	360	96.7321	16.3468	-96.5683	-17.8308	0.0000	0.0000	0.0000	0.0000;
	86	90	0.001364	0.009731	0.016243	457	457	457	0	0	1	-360	360	-99.7913	-23.1649	99.9089	22.0284	0.0000	0.0000	0.0000	0.0000;
	129	87	0.000579	0.004112	0.007008	446	446	446	0	0	1	-360	360	-61.8787	-11.5220	61.8976	10.8072	0.0000	0.0000	0.0000	0.0000;
	132	76	0.000847	0.00624	0.009544	457	457	457	0	0	1	-360	360	247.0000	-5.7824	-246.5804	7.6992	0.0000	0.0000	0.0000	0.0000;
	133	77	0.000847	0.00626	0.009477	457	457	457	0	0	1	-360	360	123.0000	10.3989	-122.8952	-10.7901	0.0000	0.0000	0.0000	0.0000;
	102	77	0.001591	0.011116	0.019128	492	492	492	0	0	1	-360	360	-205.8380	-17.6209	206.3950	19.1722	0.0000	0.0000	0.0000	0.0000;
	125	104	0.003141	0.021591	0.038391	446	446	446	0	0	1	-360	360	-57.5102	-2.4559	57.5948	-1.6857	0.0000	0.0000	0.0000	0.0000;
	126	111	0.004545	0.03157	0.055312	373	373	373	0	0	1	-360	360	86.2963	31.5313	-85.9756	-36.0164	0.0000	0.0000	0.0000	0.0000;
	104	84	0.001446	0.009917	0.017598	373	373	373	0	0	1	-360	360	123.0895	20.3427	-122.9063	-21.2477	0.0000	0.0000	0.0000	0.0000;
	105	95	0.003822	0.026674	0.046154	373	373	373	0	0	1	-360	360	22.0245	2.9220	-22.0084	-8.4855	0.0000	0.0000	0.0000	0.0000;
	112	80	0.007769	0.041281	0.063907	316	316	316	0	0	1	-360	360	-3.2719	-12.3372	3.2772	4.6786	0.0000	0.0000	0.0000	0.0000;
	89	78	0.004463	0.030413	0.048671	290	290	290	0	0	1	-360	360	-12.8719	-22.7688	12.8923	16.9435	0.0000	0.0000	0.0000	0.0000;
	117	108	0.005888	0.035062	0.052349	290	290	290	0	0	1	-360	360	48.1468	2.9688	-48.0337	-8.6940	0.0000	0.0000	0.0000	0.0000;
	109	99	0.003161	0.023409	0.036165	373	373	373	0	0	1	-360	360	-44.2419	-5.6712	44.2931	1.6387	0.0000	0.0000	0.0000	0.0000;
	116	79	0.001839	0.012603	0.022399	373	373	373	0	0	1	-360	360	-81.4423	-1.4508	81.5417	-0.6200	0.0000	0.0000	0.0000	0.0000;
	107	88	0.001715	0.009607	0.014239	335	335	335	0	0	1	-360	360	72.0869	27.6064	-72.0029	-28.8771	0.0000	0.0000	0.0000	0.0000;
	98	79	0.003409	0.024421	0.039969	290	290	290	0	0	1	-360	360	-68.0845	-9.1753	68.2151	5.2101	0.0000	0.0000	0.0000	0.0000;
	117	78	0.001839	0.012603	0.02239	373	373	373	0	0	1	-360	360	-110.4691	-4.2591	110.6521	2.7602	0.0000	0.0000	0.0000	0.0000;
	83	97	0.005702	0.041488	0.066172	446	446	446	0	0	1	-360	360	-45.9443	11.3433	46.0533	-18.6576	0.0000	0.0000	0.0000	0.0000;
	124	118	0.004587	0.024628	0.036165	347	347	347	0	0	1	-360	360	-68.5680	-7.0529	68.7459	3.5849	0.0000	0.0000	0.0000	0.0000;
	124	110	0.002149	0.013327	0.022109	290	290	290	0	0	1	-360	360	-16.6690	4.0858	16.6744	-6.7454	0.0000	0.0000	0.0000	0.0000;
	100	71	0.000785	0.004876	0.00726	316	316	316	0	0	1	-360	360	8.3105	0.0604	-8.3100	-0.9330	0.0000	0.0000	0.0000	0.0000;
	101	70	0.000785	0.004876	0.007241	316	316	316	0	0	1	-360	360	7.1233	-0.8710	-7.1230	-0.0000	0.0000	0.0000	0.0000	0.0000;
	93	127	0.002413	0.027544	0.767968	831	831	831	0	0	1	-360	360	196.2579	-43.0129	-195.4078	-31.0024	0.0000	0.0000	0.0000	0.0000;
	82	127	0.002462	0.028525	0.7616	1621	1621	1621	0	0	1	-360	360	96.8668	-45.8571	-96.6541	-34.5273	0.0000	0.0000	0.0000	0.0000;
	122	115	0.000913	0.0104	0.289888	1358	1358	1358	0	0	1	-360	360	-30.4496	48.2602	30.4914	-79.5583	0.0000	0.0000	0.0000	0.0000;
	123	121	0.003119	0.035631	0.991072	831	831	831	0	0	1	-360	360	226.3489	-62.2681	-224.8979	-30.2857	0.0000	0.0000	0.0000	0.0000;
	115	128	0.000919	0.010512	0.292928	1358	1358	1358	0	0	1	-360	360	-146.6650	10.5493	146.8523	-40.2889	0.0000	0.0000	0.0000	0.0000;
	174	156	0.01545	0.073349	0.126614	461	461	461	0	0	1	-360	360	-271.8292	-15.6420	282.2420	50.3290	0.0000	0.0000	0.0000	0.0000;
	175	155	0.01545	0.073349	0.126614	461	461	461	0	0	1	-360	360	-299.1571	-4.4479	311.7565	49.5156	0.0000	0.0000	0.0000	0.0000;
	177	155	0.01457	0.07955	0.14007	362	362	362	0	0	1	-360	360	-144.6981	-6.6161	147.2815	3.8215	0.0000	0.0000	0.0000	0.0000;
	178	156	0.01457	0.07955	0.14007	362	362	362	0	0	1	-360	360	-116.9827	-14.1529	118.6752	6.4931	0.0000	0.0000	0.0000	0.0000;
	177	144	0.006031	0.04401	0.069793	373	373	373	0	0	1	-360	360	44.1802	-34.4802	-44.0334	27.2323	0.0000	0.0000	0.0000	0.0000;
	166	140	0.011031	0.08057	0.124127	446	446	446	0	0	1	-360	360	207.1285	1.6339	-203.2798	11.4167	0.0000	0.0000	0.0000	0.0000;
	137	155	0.005831	0.04231	0.070664	427	427	427	0	0	1	-360	360	-210.0343	-28.6735	212.2440	36.1847	0.0000	0.0000	0.0000	0.0000;
	171	174	0.01849	0.095599	0.159139	305	305	305	0	0	1	-360	360	-82.6574	54.3312	84.3642	-63.6282	0.0000	0.0000	0.0000	0.0000;
	152	175	0.010581	0.053	0.088475	415	415	415	0	0	1	-360	360	-127.2989	45.1304	129.0688	-46.0696	0.0000	0.0000	0.0000	0.0000;
	154	156	0.012521	0.091359	0.145394	457	457	457	0	0	1	-360	360	-271.7743	16.5944	279.8500	24.9776	0.0000	0.0000	0.0000	0.0000;
	136	137	0.00506	0.036539	0.063598	305	305	305	0	0	1	-360	360	-102.0241	-5.2750	102.4754	1.0701	0.0000	0.0000	0.0000	0.0000;
	148	143	0.01043	0.077891	0.122065	427	427	427	0	0	1	-360	360	-20.9463	12.6650	21.0179	-27.0070	0.0000	0.0000	0.0000	0.0000;
	153	181	0.007711	0.056961	0.088378	373	373	373	0	0	1	-360	360	-20.9785	53.9123	21.2405	-61.9041	0.0000	0.0000	0.0000	0.0000;
	171	147	0.018599	0.09638	0.140941	290	290	290	0	0	1	-360	360	-188.5050	16.7630	194.2050	-4.2182	0.0000	0.0000	0.0000	0.0000;
	176	170	0.00244	0.01318	0.021296	377	377	377	0	0	1	-360	360	-82.1198	1.0716	82.2597	-2.8253	0.0000	0.0000	0.0000	0.0000;
	170	140	0.00355	0.02593	0.041237	446	446	446	0	0	1	-360	360	-77.1244	-18.7841	77.3114	15.2534	0.0000	0.0000	0.0000	0.0000;
	171	168	0.01312	0.076219	0.116644	362	362	362	0	0	1	-360	360	104.1177	-13.4648	-102.9075	6.7997	0.0000	0.0000	0.0000	0.0000;
	170	152	0.009341	0.05225	0.087701	305	305	305	0	0	1	-360	360	-20.3094	58.2625	20.6605	-66.3794	0.0000	0.0000	0.0000	0.0000;
	146	135	0.006141	0.032521	0.052456	385	385	385	0	0	1	-360	360	-178.6743	34.3385	180.3368	-31.9946	0.0000	0.0000	0.0000	0.0000;
...